Version 4
SHEET 1 1040 724
WIRE 448 -112 352 -112
WIRE 880 -112 448 -112
WIRE 352 -80 352 -112
WIRE 352 -80 -144 -80
WIRE 448 -48 448 -112
WIRE 368 32 48 32
WIRE 448 64 448 32
WIRE -32 80 -32 32
WIRE 96 80 -32 80
WIRE 352 80 352 -80
WIRE 352 80 320 80
WIRE -32 96 -32 80
WIRE 48 144 48 32
WIRE 96 144 48 144
WIRE 400 144 320 144
WIRE 448 144 400 144
WIRE 448 160 448 144
WIRE 96 208 -80 208
WIRE 352 208 320 208
WIRE 368 208 368 32
WIRE 368 208 352 208
WIRE 400 208 368 208
WIRE -144 272 -144 -80
WIRE 96 272 -144 272
WIRE 352 272 320 272
WIRE 640 272 576 272
WIRE 880 272 880 -112
WIRE 880 272 832 272
WIRE 448 304 448 240
WIRE -32 320 -32 160
WIRE 352 320 352 272
WIRE 352 320 -32 320
WIRE 928 320 832 320
WIRE 640 368 608 368
WIRE 864 368 832 368
WIRE 48 384 48 144
WIRE 320 384 48 384
WIRE 400 384 384 384
WIRE 448 384 400 384
WIRE 864 464 864 368
WIRE 608 480 608 368
WIRE -80 624 -80 208
WIRE 576 624 576 272
WIRE 576 624 -80 624
FLAG 48 448 0
FLAG 352 -192 0
FLAG -32 32 0
FLAG 608 480 0
FLAG 864 464 0
FLAG 928 320 out_TLP
FLAG -80 208 out_555
FLAG 352 208 V_6
FLAG 448 144 V_pot
FLAG 400 384 Vd_neg
FLAG 928 400 0
SYMBOL Misc\\NE555 208 176 R0
SYMATTR InstName U1
SYMBOL res 432 48 R0
SYMATTR InstName R1
SYMATTR Value 9k
SYMBOL res 432 144 R0
SYMATTR InstName R2
SYMATTR Value 1k
SYMBOL res 432 288 R0
SYMATTR InstName R3
SYMATTR Value 1k
SYMBOL diode 320 400 R270
WINDOW 0 32 32 VTop 2
WINDOW 3 0 32 VBottom 2
SYMATTR InstName D1
SYMBOL diode 384 144 R0
SYMATTR InstName D2
SYMBOL res 432 -64 R0
SYMATTR InstName R4
SYMATTR Value 1k
SYMBOL cap -48 96 R0
SYMATTR InstName C1
SYMATTR Value 0.1n
SYMBOL cap 32 384 R0
WINDOW 3 24 46 Left 2
SYMATTR Value 4.7n
SYMATTR InstName C2
SYMBOL voltage 352 -96 R180
WINDOW 0 24 96 Left 2
WINDOW 3 24 16 Left 2
WINDOW 123 0 0 Left 0
WINDOW 39 0 0 Left 0
SYMATTR InstName V1
SYMATTR Value 10
SYMBOL TLP5702 736 320 R0
SYMATTR InstName U2
SYMBOL res 912 304 R0
SYMATTR InstName R5
SYMATTR Value 1k
TEXT 760 544 Left 2 !.tran 0.00018
TEXT 448 56 Left 2 ;POT (1)
TEXT 448 144 Left 2 ;POT (2)
TEXT 448 248 Left 2 ;POT (3)
TEXT 184 -264 Left 4 ;MOSFET Gate Driver
